&runctl
lresume=.false.
use_shortwave_radiation_TOA=.true.
use_mask=.false.
debug_switch=.true.
debug_lon=241
debug_lat=107
debug_mon=12
debug_year=1
/

&debm
filename_in='input_debm.1959.nc'
precipitation_varname='precip'
temperature_varname='temp2'
shortwave_radiation_downward_varname='swd'
shortwave_radiation_TOA_varname='srad0d'
cloud_cover_varname='aclcov'
emissivity_varname='emiss'
mapping_varname='thk'
longitude_varname='lon'
latitude_varname='lat'
time_varname='time'
stddev=3.5
/
